Version 4
SHEET 1 880 680
WIRE 320 -64 192 -64
WIRE -48 48 -80 48
WIRE 112 48 112 -64
WIRE 112 48 32 48
WIRE 128 48 112 48
WIRE 320 80 320 -64
WIRE 320 80 256 80
WIRE 384 80 320 80
WIRE 128 112 112 112
WIRE -80 144 -80 48
WIRE 112 144 112 112
WIRE -80 256 -80 224
FLAG 112 144 0
FLAG -80 256 0
FLAG 384 80 Vout
IOPIN 384 80 Out
SYMBOL op_amp 144 80 R0
SYMATTR InstName X1
SYMBOL res 48 32 R90
WINDOW 0 0 56 VBottom 2
WINDOW 3 32 56 VTop 2
SYMATTR InstName R1
SYMATTR Value 2k
SYMBOL res 208 -80 R90
WINDOW 0 0 56 VBottom 2
WINDOW 3 32 56 VTop 2
SYMATTR InstName R2
SYMATTR Value 1k
SYMBOL voltage -80 240 R180
WINDOW 123 0 0 Left 0
WINDOW 39 0 0 Left 0
SYMATTR InstName V1
SYMATTR Value 2
TEXT 24 216 Left 2 !.tran 1
