Version 4
SHEET 1 880 680
WIRE -48 48 -112 48
WIRE 176 48 32 48
WIRE 176 128 176 48
WIRE 192 128 176 128
WIRE 448 160 320 160
WIRE -112 192 -112 48
WIRE -112 192 -240 192
WIRE -48 192 -112 192
WIRE 80 192 32 192
WIRE 192 192 80 192
WIRE -240 304 -240 272
WIRE -112 304 -112 272
WIRE -112 304 -240 304
WIRE 80 304 80 272
WIRE 80 304 -112 304
WIRE 448 304 80 304
WIRE 80 336 80 304
FLAG 80 336 0
FLAG 80 192 vp
IOPIN 80 192 Out
FLAG 176 128 vm
IOPIN 176 128 Out
FLAG 448 160 vo
IOPIN 448 160 Out
SYMBOL op_amp 208 160 R0
SYMATTR InstName X1
SYMBOL current -240 272 R180
WINDOW 0 24 80 Left 2
WINDOW 3 24 0 Left 2
WINDOW 123 0 0 Left 0
WINDOW 39 0 0 Left 0
SYMATTR InstName I1
SYMATTR Value 25mA
SYMBOL res -128 176 R0
SYMATTR InstName R1
SYMATTR Value 3k
SYMBOL res 48 176 R90
WINDOW 0 0 56 VBottom 2
WINDOW 3 32 56 VTop 2
SYMATTR InstName R2
SYMATTR Value 6k
SYMBOL res 64 176 R0
SYMATTR InstName R3
SYMATTR Value 6k
SYMBOL res 48 32 R90
WINDOW 0 0 56 VBottom 2
WINDOW 3 32 56 VTop 2
SYMATTR InstName R4
SYMATTR Value 12k
TEXT 144 376 Left 2 !.tran 1
