Version 4
SHEET 1 880 680
WIRE 304 0 80 0
WIRE 80 96 80 0
WIRE 160 96 80 96
WIRE 304 128 304 0
WIRE 304 128 288 128
WIRE 384 128 304 128
WIRE 560 128 560 112
WIRE 560 128 464 128
WIRE -96 160 -208 160
WIRE 64 160 64 128
WIRE 64 160 -16 160
WIRE 160 160 64 160
WIRE 304 160 304 128
WIRE 560 176 560 128
WIRE 64 192 64 160
WIRE -208 224 -208 160
WIRE -208 368 -208 304
WIRE 64 368 64 272
WIRE 64 368 -208 368
WIRE 560 368 560 256
WIRE 560 368 64 368
WIRE 64 400 64 368
FLAG 64 400 0
FLAG 304 160 v2
IOPIN 304 160 Out
FLAG 64 128 v1
IOPIN 64 128 Out
FLAG 560 112 output
SYMBOL op_amp 176 128 R0
SYMATTR InstName X1
SYMBOL res 48 176 R0
SYMATTR InstName R1
SYMATTR Value 24
SYMBOL res 0 144 R90
WINDOW 0 0 56 VBottom 2
WINDOW 3 32 56 VTop 2
SYMATTR InstName R2
SYMATTR Value 16
SYMBOL voltage -208 208 R0
WINDOW 123 0 0 Left 0
WINDOW 39 0 0 Left 0
SYMATTR InstName V1
SYMATTR Value 5
SYMBOL res 480 112 R90
WINDOW 0 0 56 VBottom 2
WINDOW 3 32 56 VTop 2
SYMATTR InstName R3
SYMATTR Value 8
SYMBOL res 544 160 R0
SYMATTR InstName R4
SYMATTR Value 12
TEXT 248 440 Left 2 !.tran 1
